
**** 12/04/25 14:54:15 ***** PSpice 16.6.0 (October 2012) ***** ID# 0 ********

 ** Profile: "SCHEMATIC1-1"  [ d:\lh\dsn\stm32\circuit simulation-pspicefiles\schematic1\1.sim ] 


 ****     CIRCUIT DESCRIPTION


******************************************************************************




** Creating circuit file "1.cir" 
** WARNING: THIS AUTOMATICALLY GENERATED FILE MAY BE OVERWRITTEN BY SUBSEQUENT SIMULATIONS

*Libraries: 
* Profile Libraries :
* Local Libraries :
.LIB "../../../tps54202_trans.lib" 
* From [PSPICE NETLIST] section of D:\Cadence16.6\Cadence\SPB_Data\cdssetup\OrCAD_PSpice/16.6.0/PSpice.ini file:
.lib "D:\lh\slvm811a\TPS54560_PSPICE_TRANS\TPS54560_TRANS.LIB" 
.lib "nom.lib" 

*Analysis directives: 
.TRAN  0 50ms 0 10us 
.OPTIONS ADVCONV
.PROBE64 V(alias(*)) I(alias(*)) W(alias(*)) D(alias(*)) NOISE(alias(*)) 
.INC "..\SCHEMATIC1.net" 



**** INCLUDING SCHEMATIC1.net ****
* source CIRCUIT SIMULATION
X_U1         0 N14859 N14569 N15131 N14707 N143295 TPS54202_TRANS PARAMS:
+  STEADY_STATE=0
R_R1         N14707 N14569  511k TC=0,0 
V_V1         N14569 0 12Vdc
L_L1         N14859 N14920  15uH  
C_C2         0 N14569  0.1uF  TC=0,0 
C_C3         0 N14569  10uF  TC=0,0 
R_R2         0 N14707  105k TC=0,0 
C_C4         N14859 N143295  0.1uF  TC=0,0 
C_C5         N14920 0  22uF  TC=0,0 
C_C6         N14920 0  22uF  TC=0,0 
C_C7         N15228 N15131  75pF  TC=0,0 
R_R3         N15228 N14920  49.9 TC=0,0 
R_R4         N15131 N15228  100k TC=0,0 
R_R5         0 N15131  13.3k TC=0,0 

**** RESUMING 1.cir ****
.END

**** 12/04/25 14:54:15 ***** PSpice 16.6.0 (October 2012) ***** ID# 0 ********

 ** Profile: "SCHEMATIC1-1"  [ d:\lh\dsn\stm32\circuit simulation-pspicefiles\schematic1\1.sim ] 


 ****     INITIAL TRANSIENT SOLUTION       TEMPERATURE =   27.000 DEG C


******************************************************************************



 NODE   VOLTAGE     NODE   VOLTAGE     NODE   VOLTAGE     NODE   VOLTAGE


(N14569)   12.0000 (N14707) 48.43E-09 (N14859)     .1329 (N14920)     .1329     

(N15131)     .0156 (N15228)     .1328 (N143295)     .1316                       

(X_U1.ISW) 1.187E-06                  (X_U1.OCB)    0.0000                      

(X_U1.COMP)-5.654E-06                 (X_U1.HDRV)     .1329                     

(X_U1.ILIM)    1.0000                 (X_U1.LDRV) 5.000E-06                     

(X_U1.RAMP) 530.0E-09                 (X_U1.SDWN)    1.0000                     

(X_U1.U6_2)    0.0000                 (X_U1.OCLOW) 13.29E-09                    

(X_U1.PBIAS)    1.0000                (X_U1.SS_TR)-56.00E-12                    

(X_U1.U5_GM) 20.00E-06                (X_U1.HDRVIN)    0.0000                   

(X_U1.HICCUP)    0.0000               (X_U1.LDRVIN)    0.0000                   

(X_U1.SYSCLK)    0.0000               (X_U1.U6_CLK)     .6667                   

(X_U1.U6_OVP)    1.0000               (X_U1.U6_500N)    0.0000                  

(X_U1.U6_CLK1)     .6667              (X_U1.U6_CTRL)    1.0000                  

(X_U1.U6_HIGH)    0.0000              (X_U1.U6_ISWF)  -50.0000                  

(X_U1.U6_SET1)    1.0000              (X_U1.VREF_GM)-56.00E-12                  

(X_U1.U10_500N)     .6667             (X_U1.U10_OUT1)    0.0000                 

(X_U1.U10_OUT2)     .6667             (X_U1.U11_ENAB)    0.0000                 

(X_U1.U12_SET1)    1.0000             (X_U1.U3_BLANK)    0.0000                 

(X_U1.U6_ICTRL)   -2.4320             (X_U1.ULQ_MODE)    0.0000                 

(X_U1.BOOT_UVLO)    0.0000            (X_U1.N16864942)    0.0000                

(X_U1.N16878734)    0.0000            (X_U1.N16888001)-5.654E-06                

(X_U1.N17026674)    1.0000            (X_U1.N17027039)    1.0000                

(X_U1.N17027164)    1.0000            (X_U1.N17027239)    0.0000                

(X_U1.PWM_FINAL)    0.0000            (X_U1.U10_H_END)    0.0000                

(X_U1.U6_ISLOPE)    0.0000            (X_U1.U6_SKIP_N)    0.0000                

(X_U1.U6_S_HIGH)    0.0000            (X_U1.U8_SDWN_N)    0.0000                

(X_U1.X_U6_U2.1)    0.0000            (X_U1.X_U6_U3.1)    1.0000                

(X_U1.OCLOWLIMIT)    0.0000           (X_U1.U3_ULQ_CLK)    0.0000               

(X_U1.U6_CLK_LOW)    0.0000           (X_U1.U6_DISABLE) 9.710E-27               

(X_U1.U6_PWM_CLK)    0.0000           (X_U1.U6_SLEEP_N)    0.0000               

(X_U1.U8_BOOT_ON)    0.0000           (X_U1.VSENSE_INT)     .0156               

(X_U1.X_U11_U2.1)    0.0000           (X_U1.X_U11_U3.1)    1.0000               

(X_U1.X_U8_D15.3)   11.9990           (X_U1.X_U8_D16.3)     .1319               

(X_U1.U10_H_CHECK) 3.333E-09          (X_U1.U3_CLK_500K)    0.0000              

(X_U1.U4_HICCUP_N)    1.0000          (X_U1.U4_N7397984)    1.7000              

(X_U1.U5_LOW_CLMP)    0.0000          (X_U1.U5_N7406885)    0.0000              

(X_U1.U5_TAIL_CUR) 40.00E-06          (X_U1.U6_SLOPE_EN)    0.0000              

(X_U1.X_U6_U30.S1)-464.1E-27          (X_U1.X_U6_U648.P)    1.0000              

(X_U1.U10_HICCUP_N)    1.0000         (X_U1.U11_N6045102)    0.0000             

(X_U1.U3_N16692390)    1.4000         (X_U1.U3_N16804971)    5.0000             

(X_U1.U3_N16807586)    1.0000         (X_U1.U3_N16810628)    0.0000             

(X_U1.U3_N16813790) 300.0E-09         (X_U1.U3_N16817384)    0.0000             

(X_U1.U4_N16661855)    0.0000         (X_U1.U4_N16678220)    0.0000             

(X_U1.U4_N16681263)-100.0E-06         (X_U1.U4_N16681297)    1.0000             

(X_U1.U4_N16681349)    1.0000         (X_U1.U5_N16739044)-5.654E-06             

(X_U1.U5_N16755015)-5.654E-06         (X_U1.U5_N16757488)    2.3000             

(X_U1.U6_N17026546)     .6480         (X_U1.U6_N17026548)     .0240             

(X_U1.U6_N17026579)     .0200         (X_U1.U6_N17026611)    0.0000             

(X_U1.U6_N17026643) 547.5E-24         (X_U1.U6_N17026806)    0.0000             

(X_U1.U6_N17027029)-464.1E-27         (X_U1.U6_N17027085)    0.0000             

(X_U1.U6_N17027087)    0.0000         (X_U1.U6_N17027096)    0.0000             

(X_U1.U6_N17027128)    0.0000         (X_U1.U6_N17027150)     .0256             

(X_U1.U6_N17027268)     .6667         (X_U1.U6_N17027351)    0.0000             

(X_U1.U6_N17027443)     .0100         (X_U1.U6_N17027461)    0.0000             

(X_U1.U6_N17027477)    0.0000         (X_U1.U6_N17027498)    1.0000             

(X_U1.U6_N17027502)     .4500         (X_U1.U6_N17090706)    1.0000             

(X_U1.U6_N17096095) 3.334E-15         (X_U1.U6_N17096122)    5.0000             

(X_U1.U6_N17096138)    3.9800         (X_U1.U6_N17096178)    1.0000             

(X_U1.U6_N17096258)    1.0000         (X_U1.U6_N17096275)-446.5E-21             

(X_U1.U6_N17108478)    0.0000         (X_U1.U6_N17140876)-86.81E-21             

(X_U1.U6_N17152274)    0.0000         (X_U1.U6_N17152306)    0.0000             

(X_U1.U6_N17152310)    0.0000         (X_U1.U6_N17162707)     .4500             

(X_U1.U8_N16881320)   12.0000         (X_U1.U8_N16881411)    1.0000             

(X_U1.U8_N16881438)    1.0000         (X_U1.U8_N16881594)    5.0000             

(X_U1.U8_N16881692)    0.0000         (X_U1.U8_N16881733)    0.0000             

(X_U1.U8_N16881752)    1.0000         (X_U1.U8_N16881756)    1.0000             

(X_U1.U8_N16881765)    1.0000         (X_U1.U8_N16882062)    1.0000             

(X_U1.U8_N16882064)    1.0000         (X_U1.ULQ_MODE_PRE)    0.0000             

(X_U1.X_U10_U30.S1)    0.0000         (X_U1.X_U10_U648.P)    1.0000             

(X_U1.X_U10_U650.P)    1.0000         (X_U1.X_U4_U1.YINT)    0.0000             

(X_U1.X_U4_U2.YINT)    1.0000         (X_U1.X_U6_U2.INM1)     .4500             

(X_U1.X_U6_U2.INP1)    0.0000         (X_U1.X_U6_U2.INP2)    0.0000             

(X_U1.X_U6_U3.INM1)    -.6324         (X_U1.X_U6_U3.INP1)    0.0000             

(X_U1.X_U6_U3.INP2)     .0240         (X_U1.X_U6_U648.Q1)    1.0000             

(X_U1.X_U6_U648.YA) 2.000E-09         (X_U1.U10_N16854816)    1.0000            

(X_U1.U10_N16854825)   12.0000        (X_U1.U10_N16854953)    0.0000            

(X_U1.U10_N16854955)    1.0000        (X_U1.U10_N16855026)   10.0000            

(X_U1.U10_N16864533)    1.0000        (X_U1.U10_N16864539)    0.0000            

(X_U1.U10_N16864543)    0.0000        (X_U1.U10_N16864552)    0.0000            

(X_U1.U10_N16864560)    0.0000        (X_U1.U10_N16864604)    0.0000            

(X_U1.U10_N16864651)    1.0000        (X_U1.U10_N16864664)    1.0000            

(X_U1.U10_N16864671)    0.0000        (X_U1.U10_N16864680)  512.0000            

(X_U1.U10_N16864688)  515.0000        (X_U1.U10_N16864691)     .0013            

(X_U1.U10_N16864713)    0.0000        (X_U1.U10_N16864770)    0.0000            

(X_U1.U10_N16878554) 444.4E-06        (X_U1.U10_N16878590)    5.0000            

(X_U1.U10_N16878597)    3.9800        (X_U1.U10_N16878651)    1.0000            

(X_U1.U10_N16880073)    0.0000        (X_U1.U11_N16496294)    1.0000            

(X_U1.U11_N16640225)    1.2300        (X_U1.U11_N16640447)    3.0000            

(X_U1.U11_N16642234)     .5000        (X_U1.U11_N16643747)    4.2000            

(X_U1.U11_N16654275)    1.0000        (X_U1.U12_N16760761)    0.0000            

(X_U1.U12_N16760921)     .9999        (X_U1.U12_N16760925)    0.0000            

(X_U1.U12_N16766365)    1.0000        (X_U1.U12_N16775618)    0.0000            

(X_U1.U12_N16779301)    1.0000        (X_U1.U12_N16779389)    3.4000            

(X_U1.U12_N16779415)   -3.2000        (X_U1.U12_N16779597)    1.0000            

(X_U1.U6_INDELAYED1)-479.3E-21        (X_U1.U6_ISLOPE_INT)    0.0000            

(X_U1.U6_SKIP_MODEB)    0.0000        (X_U1.X_U10_U648.Q1)    1.0000            

(X_U1.X_U10_U648.YA) 2.000E-09        (X_U1.X_U10_U650.Q1)    1.0000            

(X_U1.X_U10_U650.YA) 2.000E-09        (X_U1.X_U11_U2.INM1)    1.2300            

(X_U1.X_U11_U2.INP1)    0.0000        (X_U1.X_U11_U2.INP2)    0.0000            

(X_U1.X_U11_U3.INM1)   -7.8000        (X_U1.X_U11_U3.INP1)    0.0000            

(X_U1.X_U11_U3.INP2)     .5000        (X_U1.X_U6_U603.MY5)    5.0000            

(X_U1.X_U6_U603.Qbr)    1.0000        (X_U1.X_U6_U603.Qqq)    -.0100            

(X_U1.X_U6_U646.MY5)    1.0000        (X_U1.X_U6_U646.Qbr)    1.0000            

(X_U1.X_U6_U646.Qqq)    -.0100        (X_U1.X_U6_U647.MY5)    1.0000            

(X_U1.X_U6_U647.Qbr)    1.0000        (X_U1.X_U6_U647.Qqq)    -.0100            

(X_U1.X_U6_U648.Qn1)    0.0000        (X_U1.X_U6_U648.YTD)    1.0000            

(X_U1.U10_CLR_HICCUP)    0.0000       (X_U1.U11_N166402810)     .0400           

(X_U1.U12_CBC_ILIMIT)    1.0000       (X_U1.X_U10_U648.Qn1)    0.0000           

(X_U1.X_U10_U648.YTD)    1.0000       (X_U1.X_U10_U650.Qn1)    0.0000           

(X_U1.X_U10_U650.YTD)    1.0000       (X_U1.X_U12_U646.MY5)    1.0000           

(X_U1.X_U12_U646.Qbr)    1.0000       (X_U1.X_U12_U646.Qqq) 2.002E-15           

(X_U1.X_U3_U131.Yint)    0.0000       (X_U1.X_U3_U136.YINT)    1.0000           

(X_U1.X_U3_U137.YINT)    0.0000       (X_U1.X_U4_U825.YINT)    1.0000           

(X_U1.X_U4_U827.YINT)    0.0000       (X_U1.X_U6_U600.Yint)    1.0000           

(X_U1.X_U6_U603.Qint)    -.0100       (X_U1.X_U6_U609.YINT)    0.0000           

(X_U1.X_U6_U612.Yint)    1.0000       (X_U1.X_U6_U623.Yint)    0.0000           

(X_U1.X_U6_U628.Yint)    0.0000       (X_U1.X_U6_U629.Yint)    0.0000           

(X_U1.X_U6_U630.Yint)    0.0000       (X_U1.X_U6_U631.YINT)    0.0000           

(X_U1.X_U6_U632.YINT)    0.0000       (X_U1.X_U6_U634.YINT)    0.0000           

(X_U1.X_U6_U643.YINT)    0.0000       (X_U1.X_U6_U646.Qint)    -.0100           

(X_U1.X_U6_U647.Qint)    -.0100       (X_U1.X_U6_U648.VSUP)    1.0000           

(X_U1.X_U6_U823.YINT)    0.0000       (X_U1.X_U6_U824.YINT)    0.0000           

(X_U1.X_U6_U828.YINT)    0.0000       (X_U1.X_U6_U829.YINT)    0.0000           

(X_U1.X_U6_U831.YINT)    0.0000       (X_U1.X_U8_U613.YINT)    0.0000           

(X_U1.X_U8_U616.YINT)    1.0000       (X_U1.X_U8_U617.YINT)    1.0000           

(X_U1.X_U8_U619.YINT)    0.0000       (X_U1.X_U8_U621.YINT)    1.0000           

(X_U1.X_U8_U622.YINT)    0.0000       (X_U1.X_U8_U827.YINT)    0.0000           

(X_U1.X_U10_U608.YINT)    0.0000      (X_U1.X_U10_U609.Yint)    0.0000          

(X_U1.X_U10_U613.YINT)    1.0000      (X_U1.X_U10_U614.YINT)    0.0000          

(X_U1.X_U10_U615.YINT)    0.0000      (X_U1.X_U10_U616.YINT)    0.0000          

(X_U1.X_U10_U617.YINT)    0.0000      (X_U1.X_U10_U619.Yint)    0.0000          

(X_U1.X_U10_U620.YINT)    0.0000      (X_U1.X_U10_U622.YINT)    0.0000          

(X_U1.X_U10_U625.Yint)    0.0000      (X_U1.X_U10_U648.VSUP)    1.0000          

(X_U1.X_U10_U650.VSUP)    1.0000      (X_U1.X_U10_U652.YINT)    1.0000          

(X_U1.X_U11_U136.YINT)    1.0000      (X_U1.X_U11_U604.YINT)    1.0000          

(X_U1.X_U11_U605.YINT)    0.0000      (X_U1.X_U12_U605.Yint)    1.0000          

(X_U1.X_U12_U611.Yint)    1.0000      (X_U1.X_U12_U613.YINT)    1.0000          

(X_U1.X_U12_U620.YINT)    1.0000      (X_U1.X_U12_U621.YINT)    1.0000          

(X_U1.X_U12_U646.Qint) 2.002E-15      (X_U1.X_U12_U647.YINT)    0.0000          

(X_U1.X_U3_U135.YINT1)    0.0000      (X_U1.X_U3_U135.YINT2)    0.0000          

(X_U1.X_U3_U135.YINT3)    0.0000      (X_U1.X_U6_U646.MYVSS)    0.0000          

(X_U1.X_U6_U647.MYVSS)    0.0000      (X_U1.X_U6_U822.YINT1)    0.0000          

(X_U1.X_U6_U822.YINT2)    0.0000      (X_U1.X_U6_U822.YINT3)    1.0000          

(X_U1.X_U6_U827.YINT1)    0.0000      (X_U1.X_U6_U827.YINT2)    0.0000          

(X_U1.X_U6_U827.YINT3)    1.0000      (X_U1.X_U10_U607.YINT1)    0.0000         

(X_U1.X_U10_U607.YINT2)    0.0000     (X_U1.X_U10_U607.YINT3)    1.0000         

(X_U1.X_U10_U618.YINT1)    0.0000     (X_U1.X_U10_U618.YINT2)    0.0000         

(X_U1.X_U10_U618.YINT3)    1.0000     (X_U1.X_U10_U621.YINT1)    0.0000         

(X_U1.X_U10_U621.YINT2)    0.0000     (X_U1.X_U10_U621.YINT3)    1.0000         

(X_U1.X_U12_U646.MYVSS)    0.0000     (X_U1.X_U6_U603.CLKdel)    1.0000         

(X_U1.X_U6_U603.CLKint)    0.0000     (X_U1.X_U6_U646.CLKdel)    0.0000         

(X_U1.X_U6_U646.CLKint)    0.0000     (X_U1.X_U6_U647.CLKdel)    0.0000         

(X_U1.X_U6_U647.CLKint)    0.0000     (X_U1.U12_VALLEY_ILIMIT)    1.0000        

(X_U1.X_U12_U646.CLKdel)    1.0000    (X_U1.X_U12_U646.CLKint)    0.0000        

(X_U1.X_U6_U603.X2.YINT)    0.0000    (X_U1.X_U6_U646.X2.YINT)    0.0000        

(X_U1.X_U6_U647.X2.YINT)    0.0000    (X_U1.X_U12_U646.X2.YINT)    0.0000       

(X_U1.X_U6_U603.X1.YINT1)    0.0000   (X_U1.X_U6_U603.X1.YINT2)    0.0000       

(X_U1.X_U6_U603.X1.YINT3)    1.0000   (X_U1.X_U6_U603.X3.YINT1)    0.0000       

(X_U1.X_U6_U603.X3.YINT2)    0.0000   (X_U1.X_U6_U603.X3.YINT3)    0.0000       

(X_U1.X_U6_U646.X1.YINT1)    1.0000   (X_U1.X_U6_U646.X1.YINT2)    1.0000       

(X_U1.X_U6_U646.X1.YINT3)    0.0000   (X_U1.X_U6_U646.X3.YINT1)    0.0000       

(X_U1.X_U6_U646.X3.YINT2)    0.0000   (X_U1.X_U6_U646.X3.YINT3)    0.0000       

(X_U1.X_U6_U647.X1.YINT1)    1.0000   (X_U1.X_U6_U647.X1.YINT2)    1.0000       

(X_U1.X_U6_U647.X1.YINT3)    0.0000   (X_U1.X_U6_U647.X3.YINT1)    0.0000       

(X_U1.X_U6_U647.X3.YINT2)    0.0000   (X_U1.X_U6_U647.X3.YINT3)    0.0000       

(X_U1.X_U12_U646.X1.YINT1)    0.0000  (X_U1.X_U12_U646.X1.YINT2)    0.0000      

(X_U1.X_U12_U646.X1.YINT3)    1.0000  (X_U1.X_U12_U646.X3.YINT1)    0.0000      

(X_U1.X_U12_U646.X3.YINT2)    0.0000  (X_U1.X_U12_U646.X3.YINT3)    0.0000      

(X_U1.X_U6_U30.X_NOR1.YINT)    0.0000 (X_U1.X_U6_U30.X_NOR2.YINT)    1.0000     

(X_U1.X_U10_U30.X_NOR1.YINT)    0.0000                                          

(X_U1.X_U10_U30.X_NOR2.YINT)    1.0000                   




    VOLTAGE SOURCE CURRENTS
    NAME         CURRENT

    V_V1        -2.538E-05
    X_U1.V_U8_V49  -5.000E-06
    X_U1.V_U12_V84   0.000E+00
    X_U1.V_U12_VOCLLM   0.000E+00
    X_U1.V_U12_VOCHLM   0.000E+00
    X_U1.V_U11_V64   0.000E+00
    X_U1.V_U11_V65   0.000E+00
    X_U1.V_U11_V1   0.000E+00
    X_U1.V_U11_V2   0.000E+00
    X_U1.V_U10_V48  -5.000E-06
    X_U1.V_U10_V2   0.000E+00
    X_U1.V_U10_V5   0.000E+00
    X_U1.V_U10_V9  -5.001E-12
    X_U1.V_U10_V1  -5.150E-10
    X_U1.V_U10_V10   0.000E+00
    X_U1.V_U10_V6   0.000E+00
    X_U1.V_U3_V45  -5.300E-06
    X_U1.V_U3_V47   0.000E+00
    X_U1.V_U3_VRAMP_MAX   0.000E+00
    X_U1.V_U3_V46   0.000E+00
    X_U1.V_U5_Vupper_CLMP  -2.301E-12
    X_U1.V_U4_V70  -3.401E-12
    X_U1.V_U4_V72   2.800E-08
    X_U1.V_V1    0.000E+00
    X_U1.V_U6_V85   0.000E+00
    X_U1.V_U6_V7  -5.001E-12
    X_U1.V_U6_V46   0.000E+00
    X_U1.V_U6_V8   0.000E+00
    X_U1.V_U6_V87   0.000E+00
    X_U1.V_U6_V89   0.000E+00
    X_U1.V_U6_VOVP_THRESH   0.000E+00
    X_U1.V_U6_VOVP_HYS   0.000E+00
    X_U1.V_U6_V88   0.000E+00
    X_U1.V_U6_V86   0.000E+00
    X_U1.X_U8_H2.VH_U8_H2   1.329E-08
    X_U1.X_U8_D15.vdc   1.188E-11
    X_U1.X_U8_H1.VH_U8_H1   1.187E-06
    X_U1.X_U8_D16.vdc   1.418E-13
    X_U1.X_U12_U646.V1  -1.001E-12
    X_U1.X_U12_U646.V2   2.776E-27
    X_U1.X_U10_U650.VS  -1.000E-06
    X_U1.X_U10_U648.VS  -1.000E-06
    X_U1.X_U6_U603.V1  -5.011E-12
    X_U1.X_U6_U648.VS  -1.000E-06
    X_U1.X_U6_U646.V1  -1.011E-12
    X_U1.X_U6_U646.V2  -5.677E-14
    X_U1.X_U6_U647.V1  -1.011E-12
    X_U1.X_U6_U647.V2  -5.677E-14

    TOTAL POWER DISSIPATION   4.19E-04  WATTS

Reducing minimum delta to make the circuit converge.
Reducing minimum delta to make the circuit converge.
Reducing minimum delta to make the circuit converge.
Reducing minimum delta to make the circuit converge.
Reducing minimum delta to make the circuit converge.

ERROR(ORPSIM-15139): Time step =  546.4E-21 is too small in Transient Analysis at Time =  4.112E-03. Minimum allowable step size =  1.000E-18.
         The device which is changing too fast is X_U1.D_U6_D59.



  Last node voltages tried were:

 NODE   VOLTAGE     NODE   VOLTAGE     NODE   VOLTAGE     NODE   VOLTAGE


(N14569)   12.0000 (N14707)    2.2421 (N14859)    -.0192 (N14920)    4.1398     

(N15131)     .4882 (N15228)    4.1380 (N143295)   12.0000                       

(X_U1.ISW) 1.202E-06                  (X_U1.OCB)    0.0000                      

(X_U1.COMP)     .4400                 (X_U1.HDRV)    -.0191                     

(X_U1.ILIM)    1.0000                 (X_U1.LDRV)    5.0000                     

(X_U1.RAMP)     .5270                 (X_U1.SDWN)    0.0000                     

(X_U1.U6_2)    1.0000                 (X_U1.OCLOW)    -.2456                    

(X_U1.PBIAS)    1.0000                (X_U1.SS_TR)     .4868                    

(X_U1.U5_GM) 20.00E-06                (X_U1.HDRVIN) 1.394E-30                   

(X_U1.HICCUP)    0.0000               (X_U1.LDRVIN)    1.0000                   

(X_U1.SYSCLK) 1.356E-12               (X_U1.U6_CLK) 459.1E-09                   

(X_U1.U6_OVP)    1.0000               (X_U1.U6_500N)    0.0000                  

(X_U1.U6_CLK1)     .0557              (X_U1.U6_CTRL)    1.0000                  

(X_U1.U6_HIGH)    0.0000              (X_U1.U6_ISWF)  -50.0000                  

(X_U1.U6_SET1)    1.0000              (X_U1.VREF_GM)     .4868                  

(X_U1.U10_500N)    0.0000             (X_U1.U10_OUT1)    0.0000                 

(X_U1.U10_OUT2)    0.0000             (X_U1.U11_ENAB)    1.0000                 

(X_U1.U12_SET1)    1.0000             (X_U1.U3_BLANK)    0.0000                 

(X_U1.U6_ICTRL)    -.1256             (X_U1.ULQ_MODE)    0.0000                 

(X_U1.BOOT_UVLO)    1.0000            (X_U1.N16864942)    1.0000                

(X_U1.N16878734)    1.0000            (X_U1.N16888001)     .4400                

(X_U1.N17026674)    1.0000            (X_U1.N17027039)    0.0000                

(X_U1.N17027164)    0.0000            (X_U1.N17027239)    1.0000                

(X_U1.PWM_FINAL)    0.0000            (X_U1.U10_H_END)    0.0000                

(X_U1.U6_ISLOPE) 3.632E-06            (X_U1.U6_SKIP_N)    1.0000                

(X_U1.U6_S_HIGH)    0.0000            (X_U1.U8_SDWN_N)    1.0000                

(X_U1.X_U6_U2.1)    1.0000            (X_U1.X_U6_U3.1)    1.0000                

(X_U1.OCLOWLIMIT)    1.0000           (X_U1.U3_ULQ_CLK)    1.0000               

(X_U1.U6_CLK_LOW)    1.0000           (X_U1.U6_DISABLE)     .0765               

(X_U1.U6_PWM_CLK)    0.0000           (X_U1.U6_SLEEP_N)    1.0000               

(X_U1.U8_BOOT_ON)    1.0000           (X_U1.VSENSE_INT)     .4871               

(X_U1.X_U11_U2.1)    1.0000           (X_U1.X_U11_U3.1)    1.0000               

(X_U1.X_U8_D15.3)   11.9990           (X_U1.X_U8_D16.3)    -.0202               

(X_U1.U10_H_CHECK) 5.000E-09          (X_U1.U3_CLK_500K)    0.0000              

(X_U1.U4_HICCUP_N)    1.0000          (X_U1.U4_N7397984)    1.7000              

(X_U1.U5_LOW_CLMP)     .4390          (X_U1.U5_N7406885)    0.0000              

(X_U1.U5_TAIL_CUR) 40.00E-06          (X_U1.U6_SLOPE_EN)    1.0000              

(X_U1.X_U6_U30.S1) 27.59E-12          (X_U1.X_U6_U648.P)    0.0000              

(X_U1.U10_HICCUP_N)    1.0000         (X_U1.U11_N6045102)    0.0000             

(X_U1.U3_N16692390)    1.4000         (X_U1.U3_N16804971)    5.0000             

(X_U1.U3_N16807586)    0.0000         (X_U1.U3_N16810628)    0.0000             

(X_U1.U3_N16813790) 281.1E-09         (X_U1.U3_N16817384)    0.0000             

(X_U1.U4_N16661855)    1.0000         (X_U1.U4_N16678220)    1.0000             

(X_U1.U4_N16681263)-100.0E-06         (X_U1.U4_N16681297)    0.0000             

(X_U1.U4_N16681349)    0.0000         (X_U1.U5_N16739044)     .4448             

(X_U1.U5_N16755015)     .4424         (X_U1.U5_N16757488)    2.3000             

(X_U1.U6_N17026546)     .6480         (X_U1.U6_N17026548)     .0240             

(X_U1.U6_N17026579)     .5068         (X_U1.U6_N17026611)    0.0000             

(X_U1.U6_N17026643)     .0193         (X_U1.U6_N17026806) 59.97E-06             

(X_U1.U6_N17027029) 27.59E-12         (X_U1.U6_N17027085)    0.0000             

(X_U1.U6_N17027087)    0.0000         (X_U1.U6_N17027096)    1.0000             

(X_U1.U6_N17027128)    1.0000         (X_U1.U6_N17027150)     .4971             

(X_U1.U6_N17027268)     .0349         (X_U1.U6_N17027351)    1.0000             

(X_U1.U6_N17027443)     .0100         (X_U1.U6_N17027461) 1.356E-12             

(X_U1.U6_N17027477) 1.402E-12         (X_U1.U6_N17027498)    0.0000             

(X_U1.U6_N17027502)     .4500         (X_U1.U6_N17090706)    1.0000             

(X_U1.U6_N17096095) 5.001E-15         (X_U1.U6_N17096122)    5.0000             

(X_U1.U6_N17096138)    3.9800         (X_U1.U6_N17096178)    1.0000             

(X_U1.U6_N17096258)    1.0000         (X_U1.U6_N17096275)     .3495             

(X_U1.U6_N17108478) 743.0E-06         (X_U1.U6_N17140876)-25.39E-30             

(X_U1.U6_N17152274)    -.0100         (X_U1.U6_N17152306)    1.0000             

(X_U1.U6_N17152310)     .9966         (X_U1.U6_N17162707)     .4400             

(X_U1.U8_N16881320)   12.0000         (X_U1.U8_N16881411)-720.0E-21             

(X_U1.U8_N16881438)    1.0000         (X_U1.U8_N16881594)    5.0000             

(X_U1.U8_N16881692)    1.0000         (X_U1.U8_N16881733)    0.0000             

(X_U1.U8_N16881752)     .9650         (X_U1.U8_N16881756)    1.0000             

(X_U1.U8_N16881765)    1.0000         (X_U1.U8_N16882062)     .0729             

(X_U1.U8_N16882064)    0.0000         (X_U1.ULQ_MODE_PRE)    0.0000             

(X_U1.X_U10_U30.S1)    0.0000         (X_U1.X_U10_U648.P)    0.0000             

(X_U1.X_U10_U650.P)    0.0000         (X_U1.X_U4_U1.YINT)    1.0000             

(X_U1.X_U4_U2.YINT)    1.0000         (X_U1.X_U6_U2.INM1)     .0100             

(X_U1.X_U6_U2.INP1)    0.0000         (X_U1.X_U6_U2.INP2)     .0100             

(X_U1.X_U6_U3.INM1)    -.1609         (X_U1.X_U6_U3.INP1)    0.0000             

(X_U1.X_U6_U3.INP2)     .0240         (X_U1.X_U6_U648.Q1)    0.0000             

(X_U1.X_U6_U648.YA) 714.3E-06         (X_U1.U10_N16854816)    1.0000            

(X_U1.U10_N16854825)   12.0000        (X_U1.U10_N16854953)    0.0000            

(X_U1.U10_N16854955)    1.0000        (X_U1.U10_N16855026)   10.0000            

(X_U1.U10_N16864533)    1.0000        (X_U1.U10_N16864539)    0.0000            

(X_U1.U10_N16864543)    0.0000        (X_U1.U10_N16864552)    0.0000            

(X_U1.U10_N16864560)    0.0000        (X_U1.U10_N16864604)    0.0000            

(X_U1.U10_N16864651)    0.0000        (X_U1.U10_N16864664)    1.0000            

(X_U1.U10_N16864671)    0.0000        (X_U1.U10_N16864680)  512.0000            

(X_U1.U10_N16864688)  515.0000        (X_U1.U10_N16864691)     .9985            

(X_U1.U10_N16864713)    0.0000        (X_U1.U10_N16864770)    0.0000            

(X_U1.U10_N16878554) 5.001E-15        (X_U1.U10_N16878590)    5.0000            

(X_U1.U10_N16878597)    3.9800        (X_U1.U10_N16878651)    1.0000            

(X_U1.U10_N16880073)    0.0000        (X_U1.U11_N16496294)    0.0000            

(X_U1.U11_N16640225)    1.2300        (X_U1.U11_N16640447)    3.0000            

(X_U1.U11_N16642234)     .5000        (X_U1.U11_N16643747)    4.2000            

(X_U1.U11_N16654275)    1.0000        (X_U1.U12_N16760761)-323.8E-21            

(X_U1.U12_N16760921)    0.0000        (X_U1.U12_N16760925)    0.0000            

(X_U1.U12_N16766365) 1.394E-30        (X_U1.U12_N16775618)    0.0000            

(X_U1.U12_N16779301)    1.0000        (X_U1.U12_N16779389)    3.4000            

(X_U1.U12_N16779415)   -3.2000        (X_U1.U12_N16779597)    1.0000            

(X_U1.U6_INDELAYED1)     .0057        (X_U1.U6_ISLOPE_INT) 3.632E-06            

(X_U1.U6_SKIP_MODEB)    1.0000        (X_U1.X_U10_U648.Q1)    0.0000            

(X_U1.X_U10_U648.YA)    4.1120        (X_U1.X_U10_U650.Q1)    0.0000            

(X_U1.X_U10_U650.YA) 715.3E-06        (X_U1.X_U11_U2.INM1)   -1.0121            

(X_U1.X_U11_U2.INP1)    0.0000        (X_U1.X_U11_U2.INP2)     .0400            

(X_U1.X_U11_U3.INM1)   -7.8000        (X_U1.X_U11_U3.INP1)    0.0000            

(X_U1.X_U11_U3.INP2)     .5000        (X_U1.X_U6_U603.MY5)    5.0000            

(X_U1.X_U6_U603.Qbr)    1.0000        (X_U1.X_U6_U603.Qqq)    -.0607            

(X_U1.X_U6_U646.MY5)    1.0000        (X_U1.X_U6_U646.Qbr)    0.0000            

(X_U1.X_U6_U646.Qqq)    1.0576        (X_U1.X_U6_U647.MY5)    1.0000            

(X_U1.X_U6_U647.Qbr)    0.0000        (X_U1.X_U6_U647.Qqq)    1.0575            

(X_U1.X_U6_U648.Qn1)    1.0000        (X_U1.X_U6_U648.YTD)    0.0000            

(X_U1.U10_CLR_HICCUP)    0.0000       (X_U1.U11_N166402810)     .0400           

(X_U1.U12_CBC_ILIMIT)    1.0000       (X_U1.X_U10_U648.Qn1)    1.0000           

(X_U1.X_U10_U648.YTD)    0.0000       (X_U1.X_U10_U650.Qn1)    1.0000           

(X_U1.X_U10_U650.YTD)    0.0000       (X_U1.X_U12_U646.MY5)    1.0000           

(X_U1.X_U12_U646.Qbr)    0.0000       (X_U1.X_U12_U646.Qqq)    1.0569           

(X_U1.X_U3_U131.Yint)    0.0000       (X_U1.X_U3_U136.YINT)    0.0000           

(X_U1.X_U3_U137.YINT)    0.0000       (X_U1.X_U4_U825.YINT)    0.0000           

(X_U1.X_U4_U827.YINT)    1.0000       (X_U1.X_U6_U600.Yint)    1.0000           

(X_U1.X_U6_U603.Qint)    -.0607       (X_U1.X_U6_U609.YINT)    1.0000           

(X_U1.X_U6_U612.Yint)    1.0000       (X_U1.X_U6_U623.Yint)    0.0000           

(X_U1.X_U6_U628.Yint)    0.0000       (X_U1.X_U6_U629.Yint)    0.0000           

(X_U1.X_U6_U630.Yint)    1.0000       (X_U1.X_U6_U631.YINT)    0.0000           

(X_U1.X_U6_U632.YINT)    0.0000       (X_U1.X_U6_U634.YINT)    1.0000           

(X_U1.X_U6_U643.YINT)    1.0000       (X_U1.X_U6_U646.Qint)    1.0576           

(X_U1.X_U6_U647.Qint)    1.0575       (X_U1.X_U6_U648.VSUP)    1.0000           

(X_U1.X_U6_U823.YINT)    0.0000       (X_U1.X_U6_U824.YINT)    0.0000           

(X_U1.X_U6_U828.YINT)    0.0000       (X_U1.X_U6_U829.YINT)    0.0000           

(X_U1.X_U6_U831.YINT)    1.0000       (X_U1.X_U8_U613.YINT)    1.0000           

(X_U1.X_U8_U616.YINT)    0.0000       (X_U1.X_U8_U617.YINT)    1.0000           

(X_U1.X_U8_U619.YINT)    0.0000       (X_U1.X_U8_U621.YINT)    1.0000           

(X_U1.X_U8_U622.YINT)    1.0000       (X_U1.X_U8_U827.YINT)    1.0000           

(X_U1.X_U10_U608.YINT)    0.0000      (X_U1.X_U10_U609.Yint)    0.0000          

(X_U1.X_U10_U613.YINT)    0.0000      (X_U1.X_U10_U614.YINT)    0.0000          

(X_U1.X_U10_U615.YINT)    0.0000      (X_U1.X_U10_U616.YINT)    0.0000          

(X_U1.X_U10_U617.YINT)    0.0000      (X_U1.X_U10_U619.Yint)    0.0000          

(X_U1.X_U10_U620.YINT)    0.0000      (X_U1.X_U10_U622.YINT)    0.0000          

(X_U1.X_U10_U625.Yint)    0.0000      (X_U1.X_U10_U648.VSUP)    1.0000          

(X_U1.X_U10_U650.VSUP)    1.0000      (X_U1.X_U10_U652.YINT)    1.0000          

(X_U1.X_U11_U136.YINT)    0.0000      (X_U1.X_U11_U604.YINT)    0.0000          

(X_U1.X_U11_U605.YINT)    0.0000      (X_U1.X_U12_U605.Yint)    1.0000          

(X_U1.X_U12_U611.Yint)    1.0000      (X_U1.X_U12_U613.YINT)    1.0000          

(X_U1.X_U12_U620.YINT)    1.0000      (X_U1.X_U12_U621.YINT)    1.0000          

(X_U1.X_U12_U646.Qint)    1.0569      (X_U1.X_U12_U647.YINT)    0.0000          

(X_U1.X_U3_U135.YINT1)    0.0000      (X_U1.X_U3_U135.YINT2) 173.8E-15          

(X_U1.X_U3_U135.YINT3)    0.0000      (X_U1.X_U6_U646.MYVSS)    0.0000          

(X_U1.X_U6_U647.MYVSS)    0.0000      (X_U1.X_U6_U822.YINT1)    0.0000          

(X_U1.X_U6_U822.YINT2) 106.8E-06      (X_U1.X_U6_U822.YINT3)    1.0000          

(X_U1.X_U6_U827.YINT1)    0.0000      (X_U1.X_U6_U827.YINT2) 3.124E-09          

(X_U1.X_U6_U827.YINT3)    1.0000      (X_U1.X_U10_U607.YINT1)    0.0000         

(X_U1.X_U10_U607.YINT2)    0.0000     (X_U1.X_U10_U607.YINT3)    1.0000         

(X_U1.X_U10_U618.YINT1)    0.0000     (X_U1.X_U10_U618.YINT2)    0.0000         

(X_U1.X_U10_U618.YINT3)    1.0000     (X_U1.X_U10_U621.YINT1)    0.0000         

(X_U1.X_U10_U621.YINT2)    0.0000     (X_U1.X_U10_U621.YINT3)    1.0000         

(X_U1.X_U12_U646.MYVSS)    0.0000     (X_U1.X_U6_U603.CLKdel)    1.0000         

(X_U1.X_U6_U603.CLKint)    0.0000     (X_U1.X_U6_U646.CLKdel)    1.0000         

(X_U1.X_U6_U646.CLKint)    0.0000     (X_U1.X_U6_U647.CLKdel)    1.0000         

(X_U1.X_U6_U647.CLKint)    0.0000     (X_U1.U12_VALLEY_ILIMIT)    1.0000        

(X_U1.X_U12_U646.CLKdel)    1.0000    (X_U1.X_U12_U646.CLKint)    0.0000        

(X_U1.X_U6_U603.X2.YINT)    0.0000    (X_U1.X_U6_U646.X2.YINT)    0.0000        

(X_U1.X_U6_U647.X2.YINT)    0.0000    (X_U1.X_U12_U646.X2.YINT)    0.0000       

(X_U1.X_U6_U603.X1.YINT1)    0.0000   (X_U1.X_U6_U603.X1.YINT2) 780.3E-21       

(X_U1.X_U6_U603.X1.YINT3)    1.0000   (X_U1.X_U6_U603.X3.YINT1)    0.0000       

(X_U1.X_U6_U603.X3.YINT2) 8.088E-12   (X_U1.X_U6_U603.X3.YINT3)    0.0000       

(X_U1.X_U6_U646.X1.YINT1)    0.0000   (X_U1.X_U6_U646.X1.YINT2) 1.492E-12       

(X_U1.X_U6_U646.X1.YINT3)    1.0000   (X_U1.X_U6_U646.X3.YINT1)    1.0000       

(X_U1.X_U6_U646.X3.YINT2)    1.0000   (X_U1.X_U6_U646.X3.YINT3)    1.0000       

(X_U1.X_U6_U647.X1.YINT1)    0.0000   (X_U1.X_U6_U647.X1.YINT2) 2.753E-12       

(X_U1.X_U6_U647.X1.YINT3)    1.0000   (X_U1.X_U6_U647.X3.YINT1)    1.0000       

(X_U1.X_U6_U647.X3.YINT2)    1.0000   (X_U1.X_U6_U647.X3.YINT3)    1.0000       

(X_U1.X_U12_U646.X1.YINT1)    0.0000  (X_U1.X_U12_U646.X1.YINT2) 581.7E-21      

(X_U1.X_U12_U646.X1.YINT3)    1.0000  (X_U1.X_U12_U646.X3.YINT1)    1.0000      

(X_U1.X_U12_U646.X3.YINT2)    1.0000  (X_U1.X_U12_U646.X3.YINT3)    1.0000      

(X_U1.X_U6_U30.X_NOR1.YINT)    1.0000 (X_U1.X_U6_U30.X_NOR2.YINT)    0.0000     

(X_U1.X_U10_U30.X_NOR1.YINT)    0.0000                                          

(X_U1.X_U10_U30.X_NOR2.YINT)    1.0000                   


**** Interrupt ****
